/*--------------------------------*- C++ -*----------------------------------*\
  =========                 |
  \\      /  F ield         | OpenFOAM: The Open Source CFD Toolbox
   \\    /   O peration     | Website:  https://openfoam.org
    \\  /    A nd           | Version:  11
     \\/     M anipulation  |
\*---------------------------------------------------------------------------*/
FoamFile
{
    format      ascii;
    class       polyBoundaryMesh;
    location    "constant/polyMesh";
    object      boundary;
}
// * * * * * * * * * * * * * * * * * * * * * * * * * * * * * * * * * * * * * //

3
(
    inlet
    {
        type            patch;
        nFaces          24;
        startFace       2478;
    }
    outlet
    {
        type            patch;
        nFaces          156;
        startFace       2502;
    }
    sides
    {
        type            wall;
        inGroups        List<word> 1(wall);
        nFaces          84;
        startFace       2658;
    }
)

// ************************************************************************* //
