/*--------------------------------*- C++ -*----------------------------------*\
  =========                 |
  \\      /  F ield         | OpenFOAM: The Open Source CFD Toolbox
   \\    /   O peration     | Website:  https://openfoam.org
    \\  /    A nd           | Version:  11
     \\/     M anipulation  |
\*---------------------------------------------------------------------------*/
FoamFile
{
    format      ascii;
    class       dictionary;
    location    "system";
    object      fvSolution;
}
// * * * * * * * * * * * * * * * * * * * * * * * * * * * * * * * * * * * * * //

solvers
{
    "(rho|rhoU|rhoE).*"
    {
        solver          diagonal;
    }

    "U.*"
    {
        solver          smoothSolver;
        smoother        GaussSeidel;
        nSweeps         1;
        tolerance       1e-10;
        relTol          0;
    }

    "e.*"
    {
        $U;
        tolerance       1e-10;
        relTol          0;
    }

    "kFinal.*"
    {
        $U;
        tolerance       1e-10;
        relTol          0;
    }
}

PIMPLE
{
    nCorrectors 2;
    nNonOrthogonalCorrectors 1;
	nOuterCorrectors 1;
    momentumPredictor on;
}


// ************************************************************************* //
