/*--------------------------------*- C++ -*----------------------------------*\
  =========                 |
  \\      /  F ield         | OpenFOAM: The Open Source CFD Toolbox
   \\    /   O peration     | Website:  https://openfoam.org
    \\  /    A nd           | Version:  11
     \\/     M anipulation  |
\*---------------------------------------------------------------------------*/
FoamFile
{
    format      ascii;
    class       dictionary;
    object      blockMeshDict;
}
// * * * * * * * * * * * * * * * * * * * * * * * * * * * * * * * * * * * * * //

// Note: this file is a Copy of $FOAM_TUTORIALS/resources/blockMesh/pitzDaily

convertToMeters 0.001;

vertices
((0.000000 1.385000 1.000000)(1.199445 0.692500 1.000000)(1.199445 0.692500 3.770000)(0.000000 1.385000 3.770000)(1.199445 -0.692500 1.000000)(1.199445 -0.692500 3.770000)(0.000000 -1.385000 1.000000)(0.000000 -1.385000 3.770000)(-1.199445 -0.692500 1.000000)(-1.199445 -0.692500 3.770000)(-1.199445 0.692500 1.000000)(-1.199445 0.692500 3.770000)(1.262791 0.729073 5.073333)(0.000000 1.458146 5.073333)(1.262791 -0.729073 5.073333)(0.000000 -1.458146 5.073333)(-1.262791 -0.729073 5.073333)(-1.262791 0.729073 5.073333)(1.475789 0.852047 6.376667)(0.000000 1.704095 6.376667)(1.475789 -0.852047 6.376667)(0.000000 -1.704095 6.376667)(-1.475789 -0.852047 6.376667)(-1.475789 0.852047 6.376667)(1.574325 0.908937 7.680000)(0.000000 1.817874 7.680000)(1.574325 -0.908937 7.680000)(0.000000 -1.817874 7.680000)(-1.574325 -0.908937 7.680000)(-1.574325 0.908937 7.680000)(1.577553 0.910801 8.983333)(0.000000 1.821602 8.983333)(1.577553 -0.910801 8.983333)(0.000000 -1.821602 8.983333)(-1.577553 -0.910801 8.983333)(-1.577553 0.910801 8.983333)(1.642657 0.948388 10.286667)(0.000000 1.896777 10.286667)(1.642657 -0.948388 10.286667)(0.000000 -1.896777 10.286667)(-1.642657 -0.948388 10.286667)(-1.642657 0.948388 10.286667)(1.693080 0.977500 11.590000)(0.000000 1.955000 11.590000)(1.693080 -0.977500 11.590000)(0.000000 -1.955000 11.590000)(-1.693080 -0.977500 11.590000)(-1.693080 0.977500 11.590000)(0.000000 1.385000 0.000000)(1.199445 0.692500 0.000000)(1.199445 -0.692500 0.000000)(0.000000 -1.385000 0.000000)(-1.199445 -0.692500 0.000000)(-1.199445 0.692500 0.000000)(0.000000 0.000000 0.000000)(0.000000 5.865000 11.590000)(5.079239 2.932500 11.590000)(5.079239 2.932500 36.590000)(0.000000 5.865000 36.590000)(5.079239 -2.932500 11.590000)(5.079239 -2.932500 36.590000)(0.000000 -5.865000 11.590000)(0.000000 -5.865000 36.590000)(-5.079239 -2.932500 11.590000)(-5.079239 -2.932500 36.590000)(-5.079239 2.932500 11.590000)(-5.079239 2.932500 36.590000)(1.693080 0.977500 36.590000)(0.000000 1.955000 36.590000)(0.000000 0.000000 36.590000)(1.693080 -0.977500 36.590000)(0.000000 -1.955000 36.590000)(-1.693080 -0.977500 36.590000)(-1.693080 0.977500 36.590000)(0.000000 0.000000 1.000000)(0.000000 0.000000 3.770000)(0.000000 0.000000 5.073333)(0.000000 0.000000 6.376667)(0.000000 0.000000 7.680000)(0.000000 0.000000 8.983333)(0.000000 0.000000 10.286667)(0.000000 0.000000 11.590000));

negY
();

posY
();

posYR
();


blocks
(hex (0 1 2 3 74 74 75 75) (1 3 4)  simpleGrading (1.000000 1.000000 1.000000) hex (1 4 5 2 74 74 75 75) (1 3 4)  simpleGrading (1.000000 1.000000 1.000000) hex (4 6 7 5 74 74 75 75) (1 3 4)  simpleGrading (1.000000 1.000000 1.000000) hex (6 8 9 7 74 74 75 75) (1 3 4)  simpleGrading (1.000000 1.000000 1.000000) hex (8 10 11 9 74 74 75 75) (1 3 4)  simpleGrading (1.000000 1.000000 1.000000) hex (10 0 3 11 74 74 75 75) (1 3 4)  simpleGrading (1.000000 1.000000 1.000000) hex (3 2 12 13 75 75 76 76) (1 2 4)  simpleGrading (1.000000 1.000000 1.000000) hex (2 5 14 12 75 75 76 76) (1 2 4)  simpleGrading (1.000000 1.000000 1.000000) hex (5 7 15 14 75 75 76 76) (1 2 4)  simpleGrading (1.000000 1.000000 1.000000) hex (7 9 16 15 75 75 76 76) (1 2 4)  simpleGrading (1.000000 1.000000 1.000000) hex (9 11 17 16 75 75 76 76) (1 2 4)  simpleGrading (1.000000 1.000000 1.000000) hex (11 3 13 17 75 75 76 76) (1 2 4)  simpleGrading (1.000000 1.000000 1.000000) hex (13 12 18 19 76 76 77 77) (1 2 4)  simpleGrading (1.000000 1.000000 1.000000) hex (12 14 20 18 76 76 77 77) (1 2 4)  simpleGrading (1.000000 1.000000 1.000000) hex (14 15 21 20 76 76 77 77) (1 2 4)  simpleGrading (1.000000 1.000000 1.000000) hex (15 16 22 21 76 76 77 77) (1 2 4)  simpleGrading (1.000000 1.000000 1.000000) hex (16 17 23 22 76 76 77 77) (1 2 4)  simpleGrading (1.000000 1.000000 1.000000) hex (17 13 19 23 76 76 77 77) (1 2 4)  simpleGrading (1.000000 1.000000 1.000000) hex (19 18 24 25 77 77 78 78) (1 2 4)  simpleGrading (1.000000 1.000000 1.000000) hex (18 20 26 24 77 77 78 78) (1 2 4)  simpleGrading (1.000000 1.000000 1.000000) hex (20 21 27 26 77 77 78 78) (1 2 4)  simpleGrading (1.000000 1.000000 1.000000) hex (21 22 28 27 77 77 78 78) (1 2 4)  simpleGrading (1.000000 1.000000 1.000000) hex (22 23 29 28 77 77 78 78) (1 2 4)  simpleGrading (1.000000 1.000000 1.000000) hex (23 19 25 29 77 77 78 78) (1 2 4)  simpleGrading (1.000000 1.000000 1.000000) hex (25 24 30 31 78 78 79 79) (1 2 4)  simpleGrading (1.000000 1.000000 1.000000) hex (24 26 32 30 78 78 79 79) (1 2 4)  simpleGrading (1.000000 1.000000 1.000000) hex (26 27 33 32 78 78 79 79) (1 2 4)  simpleGrading (1.000000 1.000000 1.000000) hex (27 28 34 33 78 78 79 79) (1 2 4)  simpleGrading (1.000000 1.000000 1.000000) hex (28 29 35 34 78 78 79 79) (1 2 4)  simpleGrading (1.000000 1.000000 1.000000) hex (29 25 31 35 78 78 79 79) (1 2 4)  simpleGrading (1.000000 1.000000 1.000000) hex (31 30 36 37 79 79 80 80) (1 2 4)  simpleGrading (1.000000 1.000000 1.000000) hex (30 32 38 36 79 79 80 80) (1 2 4)  simpleGrading (1.000000 1.000000 1.000000) hex (32 33 39 38 79 79 80 80) (1 2 4)  simpleGrading (1.000000 1.000000 1.000000) hex (33 34 40 39 79 79 80 80) (1 2 4)  simpleGrading (1.000000 1.000000 1.000000) hex (34 35 41 40 79 79 80 80) (1 2 4)  simpleGrading (1.000000 1.000000 1.000000) hex (35 31 37 41 79 79 80 80) (1 2 4)  simpleGrading (1.000000 1.000000 1.000000) hex (37 36 42 43 80 80 81 81) (1 2 4)  simpleGrading (1.000000 1.000000 1.000000) hex (36 38 44 42 80 80 81 81) (1 2 4)  simpleGrading (1.000000 1.000000 1.000000) hex (38 39 45 44 80 80 81 81) (1 2 4)  simpleGrading (1.000000 1.000000 1.000000) hex (39 40 46 45 80 80 81 81) (1 2 4)  simpleGrading (1.000000 1.000000 1.000000) hex (40 41 47 46 80 80 81 81) (1 2 4)  simpleGrading (1.000000 1.000000 1.000000) hex (41 37 43 47 80 80 81 81) (1 2 4)  simpleGrading (1.000000 1.000000 1.000000) hex (48 49 1 0 54 54 74 74) (1 1 4)  simpleGrading (1.000000 1.000000 1.000000) hex (49 50 4 1 54 54 74 74) (1 1 4)  simpleGrading (1.000000 1.000000 1.000000) hex (50 51 6 4 54 54 74 74) (1 1 4)  simpleGrading (1.000000 1.000000 1.000000) hex (51 52 8 6 54 54 74 74) (1 1 4)  simpleGrading (1.000000 1.000000 1.000000) hex (52 53 10 8 54 54 74 74) (1 1 4)  simpleGrading (1.000000 1.000000 1.000000) hex (53 48 0 10 54 54 74 74) (1 1 4)  simpleGrading (1.000000 1.000000 1.000000) hex (55 56 57 58 43 42 67 68) (1 15 4)  simpleGrading (1.000000 1.000000 1.000000) hex (56 59 60 57 42 44 70 67) (1 15 4)  simpleGrading (1.000000 1.000000 1.000000) hex (59 61 62 60 44 45 71 70) (1 15 4)  simpleGrading (1.000000 1.000000 1.000000) hex (61 63 64 62 45 46 72 71) (1 15 4)  simpleGrading (1.000000 1.000000 1.000000) hex (63 65 66 64 46 47 73 72) (1 15 4)  simpleGrading (1.000000 1.000000 1.000000) hex (65 55 58 66 47 43 68 73) (1 15 4)  simpleGrading (1.000000 1.000000 1.000000) hex (43 42 67 68 81 81 69 69) (1 15 4)  simpleGrading (1.000000 1.000000 1.000000) hex (42 44 70 67 81 81 69 69) (1 15 4)  simpleGrading (1.000000 1.000000 1.000000) hex (44 45 71 70 81 81 69 69) (1 15 4)  simpleGrading (1.000000 1.000000 1.000000) hex (45 46 72 71 81 81 69 69) (1 15 4)  simpleGrading (1.000000 1.000000 1.000000) hex (46 47 73 72 81 81 69 69) (1 15 4)  simpleGrading (1.000000 1.000000 1.000000) hex (47 43 68 73 81 81 69 69) (1 15 4)  simpleGrading (1.000000 1.000000 1.000000) );

boundary
(
    inlet
    {type patch; faces ((48 49 1 0) (49 50 4 1) (50 51 6 4) (51 52 8 6) (52 53 10 8) (53 48 0 10) (48 49 54 54) (49 50 54 54) (50 51 54 54) (51 52 54 54) (52 53 54 54) (53 48 54 54) );}
    outlet
    {type patch; faces ((55 56 57 58) (56 59 60 57) (59 61 62 60) (61 63 64 62) (63 65 66 64) (65 55 58 66) (58 57 67 68) (68 67 69 69) (57 60 70 67) (67 70 69 69) (60 62 71 70) (70 71 69 69) (62 64 72 71) (71 72 69 69) (64 66 73 72) (72 73 69 69) (66 58 68 73) (73 68 69 69) (55 56 42 43) (56 59 44 42) (59 61 45 44) (61 63 46 45) (63 65 47 46) (65 55 43 47) );}
	sides
	{type wall; faces ((0 1 2 3) (1 4 5 2) (4 6 7 5) (6 8 9 7) (8 10 11 9) (10 0 3 11) (3 2 12 13) (2 5 14 12) (5 7 15 14) (7 9 16 15) (9 11 17 16) (11 3 13 17) (13 12 18 19) (12 14 20 18) (14 15 21 20) (15 16 22 21) (16 17 23 22) (17 13 19 23) (19 18 24 25) (18 20 26 24) (20 21 27 26) (21 22 28 27) (22 23 29 28) (23 19 25 29) (25 24 30 31) (24 26 32 30) (26 27 33 32) (27 28 34 33) (28 29 35 34) (29 25 31 35) (31 30 36 37) (30 32 38 36) (32 33 39 38) (33 34 40 39) (34 35 41 40) (35 31 37 41) (37 36 42 43) (36 38 44 42) (38 39 45 44) (39 40 46 45) (40 41 47 46) (41 37 43 47) );}
);

// ************************************************************************* //
