/*--------------------------------*- C++ -*----------------------------------*\
  =========                 |
  \\      /  F ield         | OpenFOAM: The Open Source CFD Toolbox
   \\    /   O peration     | Website:  https://openfoam.org
    \\  /    A nd           | Version:  11
     \\/     M anipulation  |
\*---------------------------------------------------------------------------*/
FoamFile
{
    format      ascii;
    class       dictionary;
    object      blockMeshDict;
}
// * * * * * * * * * * * * * * * * * * * * * * * * * * * * * * * * * * * * * //

// Note: this file is a Copy of $FOAM_TUTORIALS/resources/blockMesh/pitzDaily

convertToMeters 0.001;

vertices
((0.000000 6.050000 1.000000)(4.277996 4.277996 1.000000)(1.007627 1.007627 14.875000)(0.000000 1.425000 14.875000)(6.050000 0.000000 1.000000)(1.425000 0.000000 14.875000)(4.277996 -4.277996 1.000000)(1.007627 -1.007627 14.875000)(0.000000 -6.050000 1.000000)(0.000000 -1.425000 14.875000)(-4.277996 -4.277996 1.000000)(-1.007627 -1.007627 14.875000)(-6.050000 -0.000000 1.000000)(-1.425000 -0.000000 14.875000)(-4.277996 4.277996 1.000000)(-1.007627 1.007627 14.875000)(1.007627 1.007627 17.725000)(0.000000 1.425000 17.725000)(1.425000 0.000000 17.725000)(1.007627 -1.007627 17.725000)(0.000000 -1.425000 17.725000)(-1.007627 -1.007627 17.725000)(-1.425000 -0.000000 17.725000)(-1.007627 1.007627 17.725000)(1.361181 1.361181 25.425000)(0.000000 1.925000 25.425000)(1.925000 0.000000 25.425000)(1.361181 -1.361181 25.425000)(0.000000 -1.925000 25.425000)(-1.361181 -1.361181 25.425000)(-1.925000 -0.000000 25.425000)(-1.361181 1.361181 25.425000)(0.000000 6.050000 0.000000)(4.277996 4.277996 0.000000)(6.050000 0.000000 0.000000)(4.277996 -4.277996 0.000000)(0.000000 -6.050000 0.000000)(-4.277996 -4.277996 0.000000)(-6.050000 -0.000000 0.000000)(-4.277996 4.277996 0.000000)(0.000000 0.000000 0.000000)(0.000000 7.700000 25.425000)(5.444722 5.444722 25.425000)(5.444722 5.444722 75.425000)(0.000000 7.700000 75.425000)(7.700000 0.000000 25.425000)(7.700000 0.000000 75.425000)(5.444722 -5.444722 25.425000)(5.444722 -5.444722 75.425000)(0.000000 -7.700000 25.425000)(0.000000 -7.700000 75.425000)(-5.444722 -5.444722 25.425000)(-5.444722 -5.444722 75.425000)(-7.700000 -0.000000 25.425000)(-7.700000 -0.000000 75.425000)(-5.444722 5.444722 25.425000)(-5.444722 5.444722 75.425000)(1.361181 1.361181 75.425000)(0.000000 1.925000 75.425000)(0.000000 0.000000 75.425000)(1.925000 0.000000 75.425000)(1.361181 -1.361181 75.425000)(0.000000 -1.925000 75.425000)(-1.361181 -1.361181 75.425000)(-1.925000 -0.000000 75.425000)(-1.361181 1.361181 75.425000)(0.000000 0.000000 1.000000)(0.000000 0.000000 14.875000)(0.000000 0.000000 17.725000)(0.000000 0.000000 25.425000));

negY
();

posY
();

posYR
();


blocks
(hex (0 1 2 3 66 66 67 67) (1 28 3)  simpleGrading (1.000000 1.000000 1.000000) hex (1 4 5 2 66 66 67 67) (1 28 3)  simpleGrading (1.000000 1.000000 1.000000) hex (4 6 7 5 66 66 67 67) (1 28 3)  simpleGrading (1.000000 1.000000 1.000000) hex (6 8 9 7 66 66 67 67) (1 28 3)  simpleGrading (1.000000 1.000000 1.000000) hex (8 10 11 9 66 66 67 67) (1 28 3)  simpleGrading (1.000000 1.000000 1.000000) hex (10 12 13 11 66 66 67 67) (1 28 3)  simpleGrading (1.000000 1.000000 1.000000) hex (12 14 15 13 66 66 67 67) (1 28 3)  simpleGrading (1.000000 1.000000 1.000000) hex (14 0 3 15 66 66 67 67) (1 28 3)  simpleGrading (1.000000 1.000000 1.000000) hex (3 2 16 17 67 67 68 68) (1 6 3)  simpleGrading (1.000000 1.000000 1.000000) hex (2 5 18 16 67 67 68 68) (1 6 3)  simpleGrading (1.000000 1.000000 1.000000) hex (5 7 19 18 67 67 68 68) (1 6 3)  simpleGrading (1.000000 1.000000 1.000000) hex (7 9 20 19 67 67 68 68) (1 6 3)  simpleGrading (1.000000 1.000000 1.000000) hex (9 11 21 20 67 67 68 68) (1 6 3)  simpleGrading (1.000000 1.000000 1.000000) hex (11 13 22 21 67 67 68 68) (1 6 3)  simpleGrading (1.000000 1.000000 1.000000) hex (13 15 23 22 67 67 68 68) (1 6 3)  simpleGrading (1.000000 1.000000 1.000000) hex (15 3 17 23 67 67 68 68) (1 6 3)  simpleGrading (1.000000 1.000000 1.000000) hex (17 16 24 25 68 68 69 69) (1 16 3)  simpleGrading (1.000000 1.000000 1.000000) hex (16 18 26 24 68 68 69 69) (1 16 3)  simpleGrading (1.000000 1.000000 1.000000) hex (18 19 27 26 68 68 69 69) (1 16 3)  simpleGrading (1.000000 1.000000 1.000000) hex (19 20 28 27 68 68 69 69) (1 16 3)  simpleGrading (1.000000 1.000000 1.000000) hex (20 21 29 28 68 68 69 69) (1 16 3)  simpleGrading (1.000000 1.000000 1.000000) hex (21 22 30 29 68 68 69 69) (1 16 3)  simpleGrading (1.000000 1.000000 1.000000) hex (22 23 31 30 68 68 69 69) (1 16 3)  simpleGrading (1.000000 1.000000 1.000000) hex (23 17 25 31 68 68 69 69) (1 16 3)  simpleGrading (1.000000 1.000000 1.000000) hex (32 33 1 0 40 40 66 66) (1 2 3)  simpleGrading (1.000000 1.000000 1.000000) hex (33 34 4 1 40 40 66 66) (1 2 3)  simpleGrading (1.000000 1.000000 1.000000) hex (34 35 6 4 40 40 66 66) (1 2 3)  simpleGrading (1.000000 1.000000 1.000000) hex (35 36 8 6 40 40 66 66) (1 2 3)  simpleGrading (1.000000 1.000000 1.000000) hex (36 37 10 8 40 40 66 66) (1 2 3)  simpleGrading (1.000000 1.000000 1.000000) hex (37 38 12 10 40 40 66 66) (1 2 3)  simpleGrading (1.000000 1.000000 1.000000) hex (38 39 14 12 40 40 66 66) (1 2 3)  simpleGrading (1.000000 1.000000 1.000000) hex (39 32 0 14 40 40 66 66) (1 2 3)  simpleGrading (1.000000 1.000000 1.000000) hex (41 42 43 44 25 24 57 58) (1 100 9)  simpleGrading (1.000000 1.000000 1.000000) hex (42 45 46 43 24 26 60 57) (1 100 9)  simpleGrading (1.000000 1.000000 1.000000) hex (45 47 48 46 26 27 61 60) (1 100 9)  simpleGrading (1.000000 1.000000 1.000000) hex (47 49 50 48 27 28 62 61) (1 100 9)  simpleGrading (1.000000 1.000000 1.000000) hex (49 51 52 50 28 29 63 62) (1 100 9)  simpleGrading (1.000000 1.000000 1.000000) hex (51 53 54 52 29 30 64 63) (1 100 9)  simpleGrading (1.000000 1.000000 1.000000) hex (53 55 56 54 30 31 65 64) (1 100 9)  simpleGrading (1.000000 1.000000 1.000000) hex (55 41 44 56 31 25 58 65) (1 100 9)  simpleGrading (1.000000 1.000000 1.000000) hex (25 24 57 58 69 69 59 59) (1 100 3)  simpleGrading (1.000000 1.000000 1.000000) hex (24 26 60 57 69 69 59 59) (1 100 3)  simpleGrading (1.000000 1.000000 1.000000) hex (26 27 61 60 69 69 59 59) (1 100 3)  simpleGrading (1.000000 1.000000 1.000000) hex (27 28 62 61 69 69 59 59) (1 100 3)  simpleGrading (1.000000 1.000000 1.000000) hex (28 29 63 62 69 69 59 59) (1 100 3)  simpleGrading (1.000000 1.000000 1.000000) hex (29 30 64 63 69 69 59 59) (1 100 3)  simpleGrading (1.000000 1.000000 1.000000) hex (30 31 65 64 69 69 59 59) (1 100 3)  simpleGrading (1.000000 1.000000 1.000000) hex (31 25 58 65 69 69 59 59) (1 100 3)  simpleGrading (1.000000 1.000000 1.000000) );

boundary
(
    inlet
    {type patch; faces ((32 33 1 0) (33 34 4 1) (34 35 6 4) (35 36 8 6) (36 37 10 8) (37 38 12 10) (38 39 14 12) (39 32 0 14) (32 33 40 40) (33 34 40 40) (34 35 40 40) (35 36 40 40) (36 37 40 40) (37 38 40 40) (38 39 40 40) (39 32 40 40) );}
    outlet
    {type patch; faces ((41 42 43 44) (42 45 46 43) (45 47 48 46) (47 49 50 48) (49 51 52 50) (51 53 54 52) (53 55 56 54) (55 41 44 56) (44 43 57 58) (58 57 59 59) (43 46 60 57) (57 60 59 59) (46 48 61 60) (60 61 59 59) (48 50 62 61) (61 62 59 59) (50 52 63 62) (62 63 59 59) (52 54 64 63) (63 64 59 59) (54 56 65 64) (64 65 59 59) (56 44 58 65) (65 58 59 59) (41 42 24 25) (42 45 26 24) (45 47 27 26) (47 49 28 27) (49 51 29 28) (51 53 30 29) (53 55 31 30) (55 41 25 31) );}
	sides
	{type wall; faces ((0 1 2 3) (1 4 5 2) (4 6 7 5) (6 8 9 7) (8 10 11 9) (10 12 13 11) (12 14 15 13) (14 0 3 15) (3 2 16 17) (2 5 18 16) (5 7 19 18) (7 9 20 19) (9 11 21 20) (11 13 22 21) (13 15 23 22) (15 3 17 23) (17 16 24 25) (16 18 26 24) (18 19 27 26) (19 20 28 27) (20 21 29 28) (21 22 30 29) (22 23 31 30) (23 17 25 31) );}
);

// ************************************************************************* //
