/*--------------------------------*- C++ -*----------------------------------*\
  =========                 |
  \\      /  F ield         | OpenFOAM: The Open Source CFD Toolbox
   \\    /   O peration     | Website:  https://openfoam.org
    \\  /    A nd           | Version:  11
     \\/     M anipulation  |
\*---------------------------------------------------------------------------*/
FoamFile
{
    format      ascii;
    class       dictionary;
    object      blockMeshDict;
}
// * * * * * * * * * * * * * * * * * * * * * * * * * * * * * * * * * * * * * //

// Note: this file is a Copy of $FOAM_TUTORIALS/resources/blockMesh/pitzDaily

convertToMeters 0.001;

vertices
((0.000000 6.050000 1.000000)(4.277996 4.277996 1.000000)(1.007627 1.007627 14.875000)(0.000000 1.425000 14.875000)(6.050000 0.000000 1.000000)(1.425000 0.000000 14.875000)(4.277996 -4.277996 1.000000)(1.007627 -1.007627 14.875000)(0.000000 -6.050000 1.000000)(0.000000 -1.425000 14.875000)(-4.277996 -4.277996 1.000000)(-1.007627 -1.007627 14.875000)(-6.050000 -0.000000 1.000000)(-1.425000 -0.000000 14.875000)(-4.277996 4.277996 1.000000)(-1.007627 1.007627 14.875000)(1.007627 1.007627 17.725000)(0.000000 1.425000 17.725000)(1.425000 0.000000 17.725000)(1.007627 -1.007627 17.725000)(0.000000 -1.425000 17.725000)(-1.007627 -1.007627 17.725000)(-1.425000 -0.000000 17.725000)(-1.007627 1.007627 17.725000)(1.361181 1.361181 25.425000)(0.000000 1.925000 25.425000)(1.925000 0.000000 25.425000)(1.361181 -1.361181 25.425000)(0.000000 -1.925000 25.425000)(-1.361181 -1.361181 25.425000)(-1.925000 -0.000000 25.425000)(-1.361181 1.361181 25.425000)(0.000000 6.050000 0.000000)(4.277996 4.277996 0.000000)(6.050000 0.000000 0.000000)(4.277996 -4.277996 0.000000)(0.000000 -6.050000 0.000000)(-4.277996 -4.277996 0.000000)(-6.050000 -0.000000 0.000000)(-4.277996 4.277996 0.000000)(0.000000 0.000000 0.000000)(0.000000 9.625000 25.425000)(6.805903 6.805903 25.425000)(6.805903 6.805903 125.425000)(0.000000 9.625000 125.425000)(9.625000 0.000000 25.425000)(9.625000 0.000000 125.425000)(6.805903 -6.805903 25.425000)(6.805903 -6.805903 125.425000)(0.000000 -9.625000 25.425000)(0.000000 -9.625000 125.425000)(-6.805903 -6.805903 25.425000)(-6.805903 -6.805903 125.425000)(-9.625000 -0.000000 25.425000)(-9.625000 -0.000000 125.425000)(-6.805903 6.805903 25.425000)(-6.805903 6.805903 125.425000)(1.361181 1.361181 154.300000)(0.000000 1.925000 154.300000)(1.925000 0.000000 154.300000)(1.361181 -1.361181 154.300000)(0.000000 -1.925000 154.300000)(-1.361181 -1.361181 154.300000)(-1.925000 -0.000000 154.300000)(-1.361181 1.361181 154.300000)(0.272236 0.272236 154.300000)(0.000000 0.385000 154.300000)(0.000000 0.000000 154.300000)(0.385000 0.000000 154.300000)(0.272236 -0.272236 154.300000)(0.000000 -0.385000 154.300000)(-0.272236 -0.272236 154.300000)(-0.385000 -0.000000 154.300000)(-0.272236 0.272236 154.300000)(0.000000 0.000000 1.000000)(0.000000 0.000000 14.875000)(0.000000 0.000000 17.725000)(0.000000 0.000000 25.425000)(1.361181 1.361181 125.425000)(0.000000 1.925000 125.425000)(1.925000 0.000000 125.425000)(1.361181 -1.361181 125.425000)(0.000000 -1.925000 125.425000)(-1.361181 -1.361181 125.425000)(-1.925000 -0.000000 125.425000)(-1.361181 1.361181 125.425000)(0.000000 0.000000 125.425000));

negY
();

posY
();

posYR
();


blocks
(hex (0 1 2 3 74 74 75 75) (1 42 3)  simpleGrading (1.000000 1.000000 1.000000) hex (1 4 5 2 74 74 75 75) (1 42 3)  simpleGrading (1.000000 1.000000 1.000000) hex (4 6 7 5 74 74 75 75) (1 42 3)  simpleGrading (1.000000 1.000000 1.000000) hex (6 8 9 7 74 74 75 75) (1 42 3)  simpleGrading (1.000000 1.000000 1.000000) hex (8 10 11 9 74 74 75 75) (1 42 3)  simpleGrading (1.000000 1.000000 1.000000) hex (10 12 13 11 74 74 75 75) (1 42 3)  simpleGrading (1.000000 1.000000 1.000000) hex (12 14 15 13 74 74 75 75) (1 42 3)  simpleGrading (1.000000 1.000000 1.000000) hex (14 0 3 15 74 74 75 75) (1 42 3)  simpleGrading (1.000000 1.000000 1.000000) hex (3 2 16 17 75 75 76 76) (1 9 3)  simpleGrading (1.000000 1.000000 1.000000) hex (2 5 18 16 75 75 76 76) (1 9 3)  simpleGrading (1.000000 1.000000 1.000000) hex (5 7 19 18 75 75 76 76) (1 9 3)  simpleGrading (1.000000 1.000000 1.000000) hex (7 9 20 19 75 75 76 76) (1 9 3)  simpleGrading (1.000000 1.000000 1.000000) hex (9 11 21 20 75 75 76 76) (1 9 3)  simpleGrading (1.000000 1.000000 1.000000) hex (11 13 22 21 75 75 76 76) (1 9 3)  simpleGrading (1.000000 1.000000 1.000000) hex (13 15 23 22 75 75 76 76) (1 9 3)  simpleGrading (1.000000 1.000000 1.000000) hex (15 3 17 23 75 75 76 76) (1 9 3)  simpleGrading (1.000000 1.000000 1.000000) hex (17 16 24 25 76 76 77 77) (1 24 3)  simpleGrading (1.000000 1.000000 1.000000) hex (16 18 26 24 76 76 77 77) (1 24 3)  simpleGrading (1.000000 1.000000 1.000000) hex (18 19 27 26 76 76 77 77) (1 24 3)  simpleGrading (1.000000 1.000000 1.000000) hex (19 20 28 27 76 76 77 77) (1 24 3)  simpleGrading (1.000000 1.000000 1.000000) hex (20 21 29 28 76 76 77 77) (1 24 3)  simpleGrading (1.000000 1.000000 1.000000) hex (21 22 30 29 76 76 77 77) (1 24 3)  simpleGrading (1.000000 1.000000 1.000000) hex (22 23 31 30 76 76 77 77) (1 24 3)  simpleGrading (1.000000 1.000000 1.000000) hex (23 17 25 31 76 76 77 77) (1 24 3)  simpleGrading (1.000000 1.000000 1.000000) hex (32 33 1 0 40 40 74 74) (1 3 3)  simpleGrading (1.000000 1.000000 1.000000) hex (33 34 4 1 40 40 74 74) (1 3 3)  simpleGrading (1.000000 1.000000 1.000000) hex (34 35 6 4 40 40 74 74) (1 3 3)  simpleGrading (1.000000 1.000000 1.000000) hex (35 36 8 6 40 40 74 74) (1 3 3)  simpleGrading (1.000000 1.000000 1.000000) hex (36 37 10 8 40 40 74 74) (1 3 3)  simpleGrading (1.000000 1.000000 1.000000) hex (37 38 12 10 40 40 74 74) (1 3 3)  simpleGrading (1.000000 1.000000 1.000000) hex (38 39 14 12 40 40 74 74) (1 3 3)  simpleGrading (1.000000 1.000000 1.000000) hex (39 32 0 14 40 40 74 74) (1 3 3)  simpleGrading (1.000000 1.000000 1.000000) hex (41 42 43 44 25 24 78 79) (1 90 12)  simpleGrading (1.000000 1.000000 1.000000) hex (42 45 46 43 24 26 80 78) (1 90 12)  simpleGrading (1.000000 1.000000 1.000000) hex (45 47 48 46 26 27 81 80) (1 90 12)  simpleGrading (1.000000 1.000000 1.000000) hex (47 49 50 48 27 28 82 81) (1 90 12)  simpleGrading (1.000000 1.000000 1.000000) hex (49 51 52 50 28 29 83 82) (1 90 12)  simpleGrading (1.000000 1.000000 1.000000) hex (51 53 54 52 29 30 84 83) (1 90 12)  simpleGrading (1.000000 1.000000 1.000000) hex (53 55 56 54 30 31 85 84) (1 90 12)  simpleGrading (1.000000 1.000000 1.000000) hex (55 41 44 56 31 25 79 85) (1 90 12)  simpleGrading (1.000000 1.000000 1.000000) hex (44 43 57 58 79 78 65 66) (1 26 12)  simpleGrading (1.000000 1.000000 1.000000) hex (43 46 59 57 78 80 68 65) (1 26 12)  simpleGrading (1.000000 1.000000 1.000000) hex (46 48 60 59 80 81 69 68) (1 26 12)  simpleGrading (1.000000 1.000000 1.000000) hex (48 50 61 60 81 82 70 69) (1 26 12)  simpleGrading (1.000000 1.000000 1.000000) hex (50 52 62 61 82 83 71 70) (1 26 12)  simpleGrading (1.000000 1.000000 1.000000) hex (52 54 63 62 83 84 72 71) (1 26 12)  simpleGrading (1.000000 1.000000 1.000000) hex (54 56 64 63 84 85 73 72) (1 26 12)  simpleGrading (1.000000 1.000000 1.000000) hex (56 44 58 64 85 79 66 73) (1 26 12)  simpleGrading (1.000000 1.000000 1.000000) hex (25 24 78 79 77 77 86 86) (1 90 3)  simpleGrading (1.000000 1.000000 1.000000) hex (24 26 80 78 77 77 86 86) (1 90 3)  simpleGrading (1.000000 1.000000 1.000000) hex (26 27 81 80 77 77 86 86) (1 90 3)  simpleGrading (1.000000 1.000000 1.000000) hex (27 28 82 81 77 77 86 86) (1 90 3)  simpleGrading (1.000000 1.000000 1.000000) hex (28 29 83 82 77 77 86 86) (1 90 3)  simpleGrading (1.000000 1.000000 1.000000) hex (29 30 84 83 77 77 86 86) (1 90 3)  simpleGrading (1.000000 1.000000 1.000000) hex (30 31 85 84 77 77 86 86) (1 90 3)  simpleGrading (1.000000 1.000000 1.000000) hex (31 25 79 85 77 77 86 86) (1 90 3)  simpleGrading (1.000000 1.000000 1.000000) hex (79 78 65 66 86 86 67 67) (1 26 3)  simpleGrading (1.000000 1.000000 1.000000) hex (78 80 68 65 86 86 67 67) (1 26 3)  simpleGrading (1.000000 1.000000 1.000000) hex (80 81 69 68 86 86 67 67) (1 26 3)  simpleGrading (1.000000 1.000000 1.000000) hex (81 82 70 69 86 86 67 67) (1 26 3)  simpleGrading (1.000000 1.000000 1.000000) hex (82 83 71 70 86 86 67 67) (1 26 3)  simpleGrading (1.000000 1.000000 1.000000) hex (83 84 72 71 86 86 67 67) (1 26 3)  simpleGrading (1.000000 1.000000 1.000000) hex (84 85 73 72 86 86 67 67) (1 26 3)  simpleGrading (1.000000 1.000000 1.000000) hex (85 79 66 73 86 86 67 67) (1 26 3)  simpleGrading (1.000000 1.000000 1.000000) );

boundary
(
    inlet
    {type patch; faces ((32 33 1 0) (33 34 4 1) (34 35 6 4) (35 36 8 6) (36 37 10 8) (37 38 12 10) (38 39 14 12) (39 32 0 14) (32 33 40 40) (33 34 40 40) (34 35 40 40) (35 36 40 40) (36 37 40 40) (37 38 40 40) (38 39 40 40) (39 32 40 40) );}
    outlet
    {type patch; faces ((41 42 43 44) (42 45 46 43) (45 47 48 46) (47 49 50 48) (49 51 52 50) (51 53 54 52) (53 55 56 54) (55 41 44 56) (44 43 57 58) (43 46 59 57) (46 48 60 59) (48 50 61 60) (50 52 62 61) (52 54 63 62) (54 56 64 63) (56 44 58 64) (58 57 65 66) (66 65 67 67) (57 59 68 65) (65 68 67 67) (59 60 69 68) (68 69 67 67) (60 61 70 69) (69 70 67 67) (61 62 71 70) (70 71 67 67) (62 63 72 71) (71 72 67 67) (63 64 73 72) (72 73 67 67) (64 58 66 73) (73 66 67 67) (41 42 24 25) (42 45 26 24) (45 47 27 26) (47 49 28 27) (49 51 29 28) (51 53 30 29) (53 55 31 30) (55 41 25 31) );}
	sides
	{type wall; faces ((0 1 2 3) (1 4 5 2) (4 6 7 5) (6 8 9 7) (8 10 11 9) (10 12 13 11) (12 14 15 13) (14 0 3 15) (3 2 16 17) (2 5 18 16) (5 7 19 18) (7 9 20 19) (9 11 21 20) (11 13 22 21) (13 15 23 22) (15 3 17 23) (17 16 24 25) (16 18 26 24) (18 19 27 26) (19 20 28 27) (20 21 29 28) (21 22 30 29) (22 23 31 30) (23 17 25 31) );}
);

// ************************************************************************* //
