/*--------------------------------*- C++ -*----------------------------------*\
  =========                 |
  \\      /  F ield         | OpenFOAM: The Open Source CFD Toolbox
   \\    /   O peration     | Website:  https://openfoam.org
    \\  /    A nd           | Version:  11
     \\/     M anipulation  |
\*---------------------------------------------------------------------------*/
FoamFile
{
    format      ascii;
    class       dictionary;
    object      blockMeshDict;
}
// * * * * * * * * * * * * * * * * * * * * * * * * * * * * * * * * * * * * * //

// Note: this file is a Copy of $FOAM_TUTORIALS/resources/blockMesh/pitzDaily

convertToMeters 0.001;

vertices
((0.000000 2.137500 1.000000)(1.851129 1.068750 1.000000)(1.234086 0.712500 3.137500)(0.000000 1.425000 3.137500)(1.851129 -1.068750 1.000000)(1.234086 -0.712500 3.137500)(0.000000 -2.137500 1.000000)(0.000000 -1.425000 3.137500)(-1.851129 -1.068750 1.000000)(-1.234086 -0.712500 3.137500)(-1.851129 1.068750 1.000000)(-1.234086 0.712500 3.137500)(1.234086 0.712500 5.987500)(0.000000 1.425000 5.987500)(1.234086 -0.712500 5.987500)(0.000000 -1.425000 5.987500)(-1.234086 -0.712500 5.987500)(-1.234086 0.712500 5.987500)(1.299038 0.750000 6.950000)(0.000000 1.500000 6.950000)(1.299038 -0.750000 6.950000)(0.000000 -1.500000 6.950000)(-1.299038 -0.750000 6.950000)(-1.299038 0.750000 6.950000)(1.351000 0.780000 7.912500)(0.000000 1.560000 7.912500)(1.351000 -0.780000 7.912500)(0.000000 -1.560000 7.912500)(-1.351000 -0.780000 7.912500)(-1.351000 0.780000 7.912500)(1.385641 0.800000 8.875000)(0.000000 1.600000 8.875000)(1.385641 -0.800000 8.875000)(0.000000 -1.600000 8.875000)(-1.385641 -0.800000 8.875000)(-1.385641 0.800000 8.875000)(1.389971 0.802500 9.837500)(0.000000 1.605000 9.837500)(1.389971 -0.802500 9.837500)(0.000000 -1.605000 9.837500)(-1.389971 -0.802500 9.837500)(-1.389971 0.802500 9.837500)(1.498224 0.865000 10.800000)(0.000000 1.730000 10.800000)(1.498224 -0.865000 10.800000)(0.000000 -1.730000 10.800000)(-1.498224 -0.865000 10.800000)(-1.498224 0.865000 10.800000)(2.598076 1.500000 11.762500)(0.000000 3.000000 11.762500)(2.598076 -1.500000 11.762500)(0.000000 -3.000000 11.762500)(-2.598076 -1.500000 11.762500)(-2.598076 1.500000 11.762500)(3.117691 1.800000 12.725000)(0.000000 3.600000 12.725000)(3.117691 -1.800000 12.725000)(0.000000 -3.600000 12.725000)(-3.117691 -1.800000 12.725000)(-3.117691 1.800000 12.725000)(1.667099 0.962500 13.687500)(0.000000 1.925000 13.687500)(1.667099 -0.962500 13.687500)(0.000000 -1.925000 13.687500)(-1.667099 -0.962500 13.687500)(-1.667099 0.962500 13.687500)(0.000000 2.137500 0.000000)(1.851129 1.068750 0.000000)(1.851129 -1.068750 0.000000)(0.000000 -2.137500 0.000000)(-1.851129 -1.068750 0.000000)(-1.851129 1.068750 0.000000)(0.000000 0.000000 0.000000)(0.000000 5.775000 13.687500)(5.001297 2.887500 13.687500)(5.001297 2.887500 43.687500)(0.000000 5.775000 43.687500)(5.001297 -2.887500 13.687500)(5.001297 -2.887500 43.687500)(0.000000 -5.775000 13.687500)(0.000000 -5.775000 43.687500)(-5.001297 -2.887500 13.687500)(-5.001297 -2.887500 43.687500)(-5.001297 2.887500 13.687500)(-5.001297 2.887500 43.687500)(1.667099 0.962500 43.687500)(0.000000 1.925000 43.687500)(0.000000 0.000000 43.687500)(1.667099 -0.962500 43.687500)(0.000000 -1.925000 43.687500)(-1.667099 -0.962500 43.687500)(-1.667099 0.962500 43.687500)(0.000000 0.000000 1.000000)(0.000000 0.000000 3.137500)(0.000000 0.000000 5.987500)(0.000000 0.000000 6.950000)(0.000000 0.000000 7.912500)(0.000000 0.000000 8.875000)(0.000000 0.000000 9.837500)(0.000000 0.000000 10.800000)(0.000000 0.000000 11.762500)(0.000000 0.000000 12.725000)(0.000000 0.000000 13.687500));

negY
();

posY
();

posYR
();


blocks
(hex (0 1 2 3 92 92 93 93) (1 3 3)  simpleGrading (1.000000 1.000000 1.000000) hex (1 4 5 2 92 92 93 93) (1 3 3)  simpleGrading (1.000000 1.000000 1.000000) hex (4 6 7 5 92 92 93 93) (1 3 3)  simpleGrading (1.000000 1.000000 1.000000) hex (6 8 9 7 92 92 93 93) (1 3 3)  simpleGrading (1.000000 1.000000 1.000000) hex (8 10 11 9 92 92 93 93) (1 3 3)  simpleGrading (1.000000 1.000000 1.000000) hex (10 0 3 11 92 92 93 93) (1 3 3)  simpleGrading (1.000000 1.000000 1.000000) hex (3 2 12 13 93 93 94 94) (1 3 3)  simpleGrading (1.000000 1.000000 1.000000) hex (2 5 14 12 93 93 94 94) (1 3 3)  simpleGrading (1.000000 1.000000 1.000000) hex (5 7 15 14 93 93 94 94) (1 3 3)  simpleGrading (1.000000 1.000000 1.000000) hex (7 9 16 15 93 93 94 94) (1 3 3)  simpleGrading (1.000000 1.000000 1.000000) hex (9 11 17 16 93 93 94 94) (1 3 3)  simpleGrading (1.000000 1.000000 1.000000) hex (11 3 13 17 93 93 94 94) (1 3 3)  simpleGrading (1.000000 1.000000 1.000000) hex (13 12 18 19 94 94 95 95) (1 1 3)  simpleGrading (1.000000 1.000000 1.000000) hex (12 14 20 18 94 94 95 95) (1 1 3)  simpleGrading (1.000000 1.000000 1.000000) hex (14 15 21 20 94 94 95 95) (1 1 3)  simpleGrading (1.000000 1.000000 1.000000) hex (15 16 22 21 94 94 95 95) (1 1 3)  simpleGrading (1.000000 1.000000 1.000000) hex (16 17 23 22 94 94 95 95) (1 1 3)  simpleGrading (1.000000 1.000000 1.000000) hex (17 13 19 23 94 94 95 95) (1 1 3)  simpleGrading (1.000000 1.000000 1.000000) hex (19 18 24 25 95 95 96 96) (1 1 3)  simpleGrading (1.000000 1.000000 1.000000) hex (18 20 26 24 95 95 96 96) (1 1 3)  simpleGrading (1.000000 1.000000 1.000000) hex (20 21 27 26 95 95 96 96) (1 1 3)  simpleGrading (1.000000 1.000000 1.000000) hex (21 22 28 27 95 95 96 96) (1 1 3)  simpleGrading (1.000000 1.000000 1.000000) hex (22 23 29 28 95 95 96 96) (1 1 3)  simpleGrading (1.000000 1.000000 1.000000) hex (23 19 25 29 95 95 96 96) (1 1 3)  simpleGrading (1.000000 1.000000 1.000000) hex (25 24 30 31 96 96 97 97) (1 1 3)  simpleGrading (1.000000 1.000000 1.000000) hex (24 26 32 30 96 96 97 97) (1 1 3)  simpleGrading (1.000000 1.000000 1.000000) hex (26 27 33 32 96 96 97 97) (1 1 3)  simpleGrading (1.000000 1.000000 1.000000) hex (27 28 34 33 96 96 97 97) (1 1 3)  simpleGrading (1.000000 1.000000 1.000000) hex (28 29 35 34 96 96 97 97) (1 1 3)  simpleGrading (1.000000 1.000000 1.000000) hex (29 25 31 35 96 96 97 97) (1 1 3)  simpleGrading (1.000000 1.000000 1.000000) hex (31 30 36 37 97 97 98 98) (1 1 3)  simpleGrading (1.000000 1.000000 1.000000) hex (30 32 38 36 97 97 98 98) (1 1 3)  simpleGrading (1.000000 1.000000 1.000000) hex (32 33 39 38 97 97 98 98) (1 1 3)  simpleGrading (1.000000 1.000000 1.000000) hex (33 34 40 39 97 97 98 98) (1 1 3)  simpleGrading (1.000000 1.000000 1.000000) hex (34 35 41 40 97 97 98 98) (1 1 3)  simpleGrading (1.000000 1.000000 1.000000) hex (35 31 37 41 97 97 98 98) (1 1 3)  simpleGrading (1.000000 1.000000 1.000000) hex (37 36 42 43 98 98 99 99) (1 1 3)  simpleGrading (1.000000 1.000000 1.000000) hex (36 38 44 42 98 98 99 99) (1 1 3)  simpleGrading (1.000000 1.000000 1.000000) hex (38 39 45 44 98 98 99 99) (1 1 3)  simpleGrading (1.000000 1.000000 1.000000) hex (39 40 46 45 98 98 99 99) (1 1 3)  simpleGrading (1.000000 1.000000 1.000000) hex (40 41 47 46 98 98 99 99) (1 1 3)  simpleGrading (1.000000 1.000000 1.000000) hex (41 37 43 47 98 98 99 99) (1 1 3)  simpleGrading (1.000000 1.000000 1.000000) hex (43 42 48 49 99 99 100 100) (1 1 3)  simpleGrading (1.000000 1.000000 1.000000) hex (42 44 50 48 99 99 100 100) (1 1 3)  simpleGrading (1.000000 1.000000 1.000000) hex (44 45 51 50 99 99 100 100) (1 1 3)  simpleGrading (1.000000 1.000000 1.000000) hex (45 46 52 51 99 99 100 100) (1 1 3)  simpleGrading (1.000000 1.000000 1.000000) hex (46 47 53 52 99 99 100 100) (1 1 3)  simpleGrading (1.000000 1.000000 1.000000) hex (47 43 49 53 99 99 100 100) (1 1 3)  simpleGrading (1.000000 1.000000 1.000000) hex (49 48 54 55 100 100 101 101) (1 1 3)  simpleGrading (1.000000 1.000000 1.000000) hex (48 50 56 54 100 100 101 101) (1 1 3)  simpleGrading (1.000000 1.000000 1.000000) hex (50 51 57 56 100 100 101 101) (1 1 3)  simpleGrading (1.000000 1.000000 1.000000) hex (51 52 58 57 100 100 101 101) (1 1 3)  simpleGrading (1.000000 1.000000 1.000000) hex (52 53 59 58 100 100 101 101) (1 1 3)  simpleGrading (1.000000 1.000000 1.000000) hex (53 49 55 59 100 100 101 101) (1 1 3)  simpleGrading (1.000000 1.000000 1.000000) hex (55 54 60 61 101 101 102 102) (1 1 3)  simpleGrading (1.000000 1.000000 1.000000) hex (54 56 62 60 101 101 102 102) (1 1 3)  simpleGrading (1.000000 1.000000 1.000000) hex (56 57 63 62 101 101 102 102) (1 1 3)  simpleGrading (1.000000 1.000000 1.000000) hex (57 58 64 63 101 101 102 102) (1 1 3)  simpleGrading (1.000000 1.000000 1.000000) hex (58 59 65 64 101 101 102 102) (1 1 3)  simpleGrading (1.000000 1.000000 1.000000) hex (59 55 61 65 101 101 102 102) (1 1 3)  simpleGrading (1.000000 1.000000 1.000000) hex (66 67 1 0 72 72 92 92) (1 1 3)  simpleGrading (1.000000 1.000000 1.000000) hex (67 68 4 1 72 72 92 92) (1 1 3)  simpleGrading (1.000000 1.000000 1.000000) hex (68 69 6 4 72 72 92 92) (1 1 3)  simpleGrading (1.000000 1.000000 1.000000) hex (69 70 8 6 72 72 92 92) (1 1 3)  simpleGrading (1.000000 1.000000 1.000000) hex (70 71 10 8 72 72 92 92) (1 1 3)  simpleGrading (1.000000 1.000000 1.000000) hex (71 66 0 10 72 72 92 92) (1 1 3)  simpleGrading (1.000000 1.000000 1.000000) hex (73 74 75 76 61 60 85 86) (1 15 4)  simpleGrading (1.000000 1.000000 1.000000) hex (74 77 78 75 60 62 88 85) (1 15 4)  simpleGrading (1.000000 1.000000 1.000000) hex (77 79 80 78 62 63 89 88) (1 15 4)  simpleGrading (1.000000 1.000000 1.000000) hex (79 81 82 80 63 64 90 89) (1 15 4)  simpleGrading (1.000000 1.000000 1.000000) hex (81 83 84 82 64 65 91 90) (1 15 4)  simpleGrading (1.000000 1.000000 1.000000) hex (83 73 76 84 65 61 86 91) (1 15 4)  simpleGrading (1.000000 1.000000 1.000000) hex (61 60 85 86 102 102 87 87) (1 15 3)  simpleGrading (1.000000 1.000000 1.000000) hex (60 62 88 85 102 102 87 87) (1 15 3)  simpleGrading (1.000000 1.000000 1.000000) hex (62 63 89 88 102 102 87 87) (1 15 3)  simpleGrading (1.000000 1.000000 1.000000) hex (63 64 90 89 102 102 87 87) (1 15 3)  simpleGrading (1.000000 1.000000 1.000000) hex (64 65 91 90 102 102 87 87) (1 15 3)  simpleGrading (1.000000 1.000000 1.000000) hex (65 61 86 91 102 102 87 87) (1 15 3)  simpleGrading (1.000000 1.000000 1.000000) );

boundary
(
    inlet
    {type patch; faces ((66 67 1 0) (67 68 4 1) (68 69 6 4) (69 70 8 6) (70 71 10 8) (71 66 0 10) (66 67 72 72) (67 68 72 72) (68 69 72 72) (69 70 72 72) (70 71 72 72) (71 66 72 72) );}
    outlet
    {type patch; faces ((73 74 75 76) (74 77 78 75) (77 79 80 78) (79 81 82 80) (81 83 84 82) (83 73 76 84) (76 75 85 86) (86 85 87 87) (75 78 88 85) (85 88 87 87) (78 80 89 88) (88 89 87 87) (80 82 90 89) (89 90 87 87) (82 84 91 90) (90 91 87 87) (84 76 86 91) (91 86 87 87) (73 74 60 61) (74 77 62 60) (77 79 63 62) (79 81 64 63) (81 83 65 64) (83 73 61 65) );}
	sides
	{type wall; faces ((0 1 2 3) (1 4 5 2) (4 6 7 5) (6 8 9 7) (8 10 11 9) (10 0 3 11) (3 2 12 13) (2 5 14 12) (5 7 15 14) (7 9 16 15) (9 11 17 16) (11 3 13 17) (13 12 18 19) (12 14 20 18) (14 15 21 20) (15 16 22 21) (16 17 23 22) (17 13 19 23) (19 18 24 25) (18 20 26 24) (20 21 27 26) (21 22 28 27) (22 23 29 28) (23 19 25 29) (25 24 30 31) (24 26 32 30) (26 27 33 32) (27 28 34 33) (28 29 35 34) (29 25 31 35) (31 30 36 37) (30 32 38 36) (32 33 39 38) (33 34 40 39) (34 35 41 40) (35 31 37 41) (37 36 42 43) (36 38 44 42) (38 39 45 44) (39 40 46 45) (40 41 47 46) (41 37 43 47) (43 42 48 49) (42 44 50 48) (44 45 51 50) (45 46 52 51) (46 47 53 52) (47 43 49 53) (49 48 54 55) (48 50 56 54) (50 51 57 56) (51 52 58 57) (52 53 59 58) (53 49 55 59) (55 54 60 61) (54 56 62 60) (56 57 63 62) (57 58 64 63) (58 59 65 64) (59 55 61 65) );}
);

// ************************************************************************* //
