/*--------------------------------*- C++ -*----------------------------------*\
  =========                 |
  \\      /  F ield         | OpenFOAM: The Open Source CFD Toolbox
   \\    /   O peration     | Website:  https://openfoam.org
    \\  /    A nd           | Version:  11
     \\/     M anipulation  |
\*---------------------------------------------------------------------------*/
FoamFile
{
    format      ascii;
    class       dictionary;
    object      blockMeshDict;
}
// * * * * * * * * * * * * * * * * * * * * * * * * * * * * * * * * * * * * * //

// Note: this file is a Copy of $FOAM_TUTORIALS/resources/blockMesh/pitzDaily

convertToMeters 0.001;

vertices
((0.000000 1.385000 1.000000)(1.199445 0.692500 1.000000)(1.199445 0.692500 3.770000)(0.000000 1.385000 3.770000)(1.199445 -0.692500 1.000000)(1.199445 -0.692500 3.770000)(0.000000 -1.385000 1.000000)(0.000000 -1.385000 3.770000)(-1.199445 -0.692500 1.000000)(-1.199445 -0.692500 3.770000)(-1.199445 0.692500 1.000000)(-1.199445 0.692500 3.770000)(1.244321 0.718409 4.480909)(0.000000 1.436818 4.480909)(1.244321 -0.718409 4.480909)(0.000000 -1.436818 4.480909)(-1.244321 -0.718409 4.480909)(-1.244321 0.718409 4.480909)(1.289197 0.744318 5.191818)(0.000000 1.488636 5.191818)(1.289197 -0.744318 5.191818)(0.000000 -1.488636 5.191818)(-1.289197 -0.744318 5.191818)(-1.289197 0.744318 5.191818)(1.334073 0.770227 5.902727)(0.000000 1.540455 5.902727)(1.334073 -0.770227 5.902727)(0.000000 -1.540455 5.902727)(-1.334073 -0.770227 5.902727)(-1.334073 0.770227 5.902727)(1.378949 0.796136 6.613636)(0.000000 1.592273 6.613636)(1.378949 -0.796136 6.613636)(0.000000 -1.592273 6.613636)(-1.378949 -0.796136 6.613636)(-1.378949 0.796136 6.613636)(1.423824 0.822045 7.324545)(0.000000 1.644091 7.324545)(1.423824 -0.822045 7.324545)(0.000000 -1.644091 7.324545)(-1.423824 -0.822045 7.324545)(-1.423824 0.822045 7.324545)(1.468700 0.847955 8.035455)(0.000000 1.695909 8.035455)(1.468700 -0.847955 8.035455)(0.000000 -1.695909 8.035455)(-1.468700 -0.847955 8.035455)(-1.468700 0.847955 8.035455)(1.513576 0.873864 8.746364)(0.000000 1.747727 8.746364)(1.513576 -0.873864 8.746364)(0.000000 -1.747727 8.746364)(-1.513576 -0.873864 8.746364)(-1.513576 0.873864 8.746364)(1.558452 0.899773 9.457273)(0.000000 1.799545 9.457273)(1.558452 -0.899773 9.457273)(0.000000 -1.799545 9.457273)(-1.558452 -0.899773 9.457273)(-1.558452 0.899773 9.457273)(1.603328 0.925682 10.168182)(0.000000 1.851364 10.168182)(1.603328 -0.925682 10.168182)(0.000000 -1.851364 10.168182)(-1.603328 -0.925682 10.168182)(-1.603328 0.925682 10.168182)(1.648204 0.951591 10.879091)(0.000000 1.903182 10.879091)(1.648204 -0.951591 10.879091)(0.000000 -1.903182 10.879091)(-1.648204 -0.951591 10.879091)(-1.648204 0.951591 10.879091)(1.693080 0.977500 11.590000)(0.000000 1.955000 11.590000)(1.693080 -0.977500 11.590000)(0.000000 -1.955000 11.590000)(-1.693080 -0.977500 11.590000)(-1.693080 0.977500 11.590000)(0.000000 1.385000 0.000000)(1.199445 0.692500 0.000000)(1.199445 -0.692500 0.000000)(0.000000 -1.385000 0.000000)(-1.199445 -0.692500 0.000000)(-1.199445 0.692500 0.000000)(0.000000 0.000000 0.000000)(0.000000 5.865000 11.590000)(5.079239 2.932500 11.590000)(5.079239 2.932500 36.590000)(0.000000 5.865000 36.590000)(5.079239 -2.932500 11.590000)(5.079239 -2.932500 36.590000)(0.000000 -5.865000 11.590000)(0.000000 -5.865000 36.590000)(-5.079239 -2.932500 11.590000)(-5.079239 -2.932500 36.590000)(-5.079239 2.932500 11.590000)(-5.079239 2.932500 36.590000)(1.693080 0.977500 36.590000)(0.000000 1.955000 36.590000)(0.000000 0.000000 36.590000)(1.693080 -0.977500 36.590000)(0.000000 -1.955000 36.590000)(-1.693080 -0.977500 36.590000)(-1.693080 0.977500 36.590000)(0.000000 0.000000 1.000000)(0.000000 0.000000 3.770000)(0.000000 0.000000 4.480909)(0.000000 0.000000 5.191818)(0.000000 0.000000 5.902727)(0.000000 0.000000 6.613636)(0.000000 0.000000 7.324545)(0.000000 0.000000 8.035455)(0.000000 0.000000 8.746364)(0.000000 0.000000 9.457273)(0.000000 0.000000 10.168182)(0.000000 0.000000 10.879091)(0.000000 0.000000 11.590000));

negY
();

posY
();

posYR
();


blocks
(hex (0 1 2 3 104 104 105 105) (1 6 4)  simpleGrading (1.000000 1.000000 1.000000) hex (1 4 5 2 104 104 105 105) (1 6 4)  simpleGrading (1.000000 1.000000 1.000000) hex (4 6 7 5 104 104 105 105) (1 6 4)  simpleGrading (1.000000 1.000000 1.000000) hex (6 8 9 7 104 104 105 105) (1 6 4)  simpleGrading (1.000000 1.000000 1.000000) hex (8 10 11 9 104 104 105 105) (1 6 4)  simpleGrading (1.000000 1.000000 1.000000) hex (10 0 3 11 104 104 105 105) (1 6 4)  simpleGrading (1.000000 1.000000 1.000000) hex (3 2 12 13 105 105 106 106) (1 2 4)  simpleGrading (1.000000 1.000000 1.000000) hex (2 5 14 12 105 105 106 106) (1 2 4)  simpleGrading (1.000000 1.000000 1.000000) hex (5 7 15 14 105 105 106 106) (1 2 4)  simpleGrading (1.000000 1.000000 1.000000) hex (7 9 16 15 105 105 106 106) (1 2 4)  simpleGrading (1.000000 1.000000 1.000000) hex (9 11 17 16 105 105 106 106) (1 2 4)  simpleGrading (1.000000 1.000000 1.000000) hex (11 3 13 17 105 105 106 106) (1 2 4)  simpleGrading (1.000000 1.000000 1.000000) hex (13 12 18 19 106 106 107 107) (1 2 4)  simpleGrading (1.000000 1.000000 1.000000) hex (12 14 20 18 106 106 107 107) (1 2 4)  simpleGrading (1.000000 1.000000 1.000000) hex (14 15 21 20 106 106 107 107) (1 2 4)  simpleGrading (1.000000 1.000000 1.000000) hex (15 16 22 21 106 106 107 107) (1 2 4)  simpleGrading (1.000000 1.000000 1.000000) hex (16 17 23 22 106 106 107 107) (1 2 4)  simpleGrading (1.000000 1.000000 1.000000) hex (17 13 19 23 106 106 107 107) (1 2 4)  simpleGrading (1.000000 1.000000 1.000000) hex (19 18 24 25 107 107 108 108) (1 2 4)  simpleGrading (1.000000 1.000000 1.000000) hex (18 20 26 24 107 107 108 108) (1 2 4)  simpleGrading (1.000000 1.000000 1.000000) hex (20 21 27 26 107 107 108 108) (1 2 4)  simpleGrading (1.000000 1.000000 1.000000) hex (21 22 28 27 107 107 108 108) (1 2 4)  simpleGrading (1.000000 1.000000 1.000000) hex (22 23 29 28 107 107 108 108) (1 2 4)  simpleGrading (1.000000 1.000000 1.000000) hex (23 19 25 29 107 107 108 108) (1 2 4)  simpleGrading (1.000000 1.000000 1.000000) hex (25 24 30 31 108 108 109 109) (1 2 4)  simpleGrading (1.000000 1.000000 1.000000) hex (24 26 32 30 108 108 109 109) (1 2 4)  simpleGrading (1.000000 1.000000 1.000000) hex (26 27 33 32 108 108 109 109) (1 2 4)  simpleGrading (1.000000 1.000000 1.000000) hex (27 28 34 33 108 108 109 109) (1 2 4)  simpleGrading (1.000000 1.000000 1.000000) hex (28 29 35 34 108 108 109 109) (1 2 4)  simpleGrading (1.000000 1.000000 1.000000) hex (29 25 31 35 108 108 109 109) (1 2 4)  simpleGrading (1.000000 1.000000 1.000000) hex (31 30 36 37 109 109 110 110) (1 2 4)  simpleGrading (1.000000 1.000000 1.000000) hex (30 32 38 36 109 109 110 110) (1 2 4)  simpleGrading (1.000000 1.000000 1.000000) hex (32 33 39 38 109 109 110 110) (1 2 4)  simpleGrading (1.000000 1.000000 1.000000) hex (33 34 40 39 109 109 110 110) (1 2 4)  simpleGrading (1.000000 1.000000 1.000000) hex (34 35 41 40 109 109 110 110) (1 2 4)  simpleGrading (1.000000 1.000000 1.000000) hex (35 31 37 41 109 109 110 110) (1 2 4)  simpleGrading (1.000000 1.000000 1.000000) hex (37 36 42 43 110 110 111 111) (1 2 4)  simpleGrading (1.000000 1.000000 1.000000) hex (36 38 44 42 110 110 111 111) (1 2 4)  simpleGrading (1.000000 1.000000 1.000000) hex (38 39 45 44 110 110 111 111) (1 2 4)  simpleGrading (1.000000 1.000000 1.000000) hex (39 40 46 45 110 110 111 111) (1 2 4)  simpleGrading (1.000000 1.000000 1.000000) hex (40 41 47 46 110 110 111 111) (1 2 4)  simpleGrading (1.000000 1.000000 1.000000) hex (41 37 43 47 110 110 111 111) (1 2 4)  simpleGrading (1.000000 1.000000 1.000000) hex (43 42 48 49 111 111 112 112) (1 2 4)  simpleGrading (1.000000 1.000000 1.000000) hex (42 44 50 48 111 111 112 112) (1 2 4)  simpleGrading (1.000000 1.000000 1.000000) hex (44 45 51 50 111 111 112 112) (1 2 4)  simpleGrading (1.000000 1.000000 1.000000) hex (45 46 52 51 111 111 112 112) (1 2 4)  simpleGrading (1.000000 1.000000 1.000000) hex (46 47 53 52 111 111 112 112) (1 2 4)  simpleGrading (1.000000 1.000000 1.000000) hex (47 43 49 53 111 111 112 112) (1 2 4)  simpleGrading (1.000000 1.000000 1.000000) hex (49 48 54 55 112 112 113 113) (1 2 4)  simpleGrading (1.000000 1.000000 1.000000) hex (48 50 56 54 112 112 113 113) (1 2 4)  simpleGrading (1.000000 1.000000 1.000000) hex (50 51 57 56 112 112 113 113) (1 2 4)  simpleGrading (1.000000 1.000000 1.000000) hex (51 52 58 57 112 112 113 113) (1 2 4)  simpleGrading (1.000000 1.000000 1.000000) hex (52 53 59 58 112 112 113 113) (1 2 4)  simpleGrading (1.000000 1.000000 1.000000) hex (53 49 55 59 112 112 113 113) (1 2 4)  simpleGrading (1.000000 1.000000 1.000000) hex (55 54 60 61 113 113 114 114) (1 2 4)  simpleGrading (1.000000 1.000000 1.000000) hex (54 56 62 60 113 113 114 114) (1 2 4)  simpleGrading (1.000000 1.000000 1.000000) hex (56 57 63 62 113 113 114 114) (1 2 4)  simpleGrading (1.000000 1.000000 1.000000) hex (57 58 64 63 113 113 114 114) (1 2 4)  simpleGrading (1.000000 1.000000 1.000000) hex (58 59 65 64 113 113 114 114) (1 2 4)  simpleGrading (1.000000 1.000000 1.000000) hex (59 55 61 65 113 113 114 114) (1 2 4)  simpleGrading (1.000000 1.000000 1.000000) hex (61 60 66 67 114 114 115 115) (1 2 4)  simpleGrading (1.000000 1.000000 1.000000) hex (60 62 68 66 114 114 115 115) (1 2 4)  simpleGrading (1.000000 1.000000 1.000000) hex (62 63 69 68 114 114 115 115) (1 2 4)  simpleGrading (1.000000 1.000000 1.000000) hex (63 64 70 69 114 114 115 115) (1 2 4)  simpleGrading (1.000000 1.000000 1.000000) hex (64 65 71 70 114 114 115 115) (1 2 4)  simpleGrading (1.000000 1.000000 1.000000) hex (65 61 67 71 114 114 115 115) (1 2 4)  simpleGrading (1.000000 1.000000 1.000000) hex (67 66 72 73 115 115 116 116) (1 2 4)  simpleGrading (1.000000 1.000000 1.000000) hex (66 68 74 72 115 115 116 116) (1 2 4)  simpleGrading (1.000000 1.000000 1.000000) hex (68 69 75 74 115 115 116 116) (1 2 4)  simpleGrading (1.000000 1.000000 1.000000) hex (69 70 76 75 115 115 116 116) (1 2 4)  simpleGrading (1.000000 1.000000 1.000000) hex (70 71 77 76 115 115 116 116) (1 2 4)  simpleGrading (1.000000 1.000000 1.000000) hex (71 67 73 77 115 115 116 116) (1 2 4)  simpleGrading (1.000000 1.000000 1.000000) hex (78 79 1 0 84 84 104 104) (1 2 4)  simpleGrading (1.000000 1.000000 1.000000) hex (79 80 4 1 84 84 104 104) (1 2 4)  simpleGrading (1.000000 1.000000 1.000000) hex (80 81 6 4 84 84 104 104) (1 2 4)  simpleGrading (1.000000 1.000000 1.000000) hex (81 82 8 6 84 84 104 104) (1 2 4)  simpleGrading (1.000000 1.000000 1.000000) hex (82 83 10 8 84 84 104 104) (1 2 4)  simpleGrading (1.000000 1.000000 1.000000) hex (83 78 0 10 84 84 104 104) (1 2 4)  simpleGrading (1.000000 1.000000 1.000000) hex (85 86 87 88 73 72 97 98) (1 15 4)  simpleGrading (1.000000 1.000000 1.000000) hex (86 89 90 87 72 74 100 97) (1 15 4)  simpleGrading (1.000000 1.000000 1.000000) hex (89 91 92 90 74 75 101 100) (1 15 4)  simpleGrading (1.000000 1.000000 1.000000) hex (91 93 94 92 75 76 102 101) (1 15 4)  simpleGrading (1.000000 1.000000 1.000000) hex (93 95 96 94 76 77 103 102) (1 15 4)  simpleGrading (1.000000 1.000000 1.000000) hex (95 85 88 96 77 73 98 103) (1 15 4)  simpleGrading (1.000000 1.000000 1.000000) hex (73 72 97 98 116 116 99 99) (1 15 4)  simpleGrading (1.000000 1.000000 1.000000) hex (72 74 100 97 116 116 99 99) (1 15 4)  simpleGrading (1.000000 1.000000 1.000000) hex (74 75 101 100 116 116 99 99) (1 15 4)  simpleGrading (1.000000 1.000000 1.000000) hex (75 76 102 101 116 116 99 99) (1 15 4)  simpleGrading (1.000000 1.000000 1.000000) hex (76 77 103 102 116 116 99 99) (1 15 4)  simpleGrading (1.000000 1.000000 1.000000) hex (77 73 98 103 116 116 99 99) (1 15 4)  simpleGrading (1.000000 1.000000 1.000000) );

boundary
(
    inlet
    {type patch; faces ((78 79 1 0) (79 80 4 1) (80 81 6 4) (81 82 8 6) (82 83 10 8) (83 78 0 10) (78 79 84 84) (79 80 84 84) (80 81 84 84) (81 82 84 84) (82 83 84 84) (83 78 84 84) );}
    outlet
    {type patch; faces ((85 86 87 88) (86 89 90 87) (89 91 92 90) (91 93 94 92) (93 95 96 94) (95 85 88 96) (88 87 97 98) (98 97 99 99) (87 90 100 97) (97 100 99 99) (90 92 101 100) (100 101 99 99) (92 94 102 101) (101 102 99 99) (94 96 103 102) (102 103 99 99) (96 88 98 103) (103 98 99 99) (85 86 72 73) (86 89 74 72) (89 91 75 74) (91 93 76 75) (93 95 77 76) (95 85 73 77) );}
	sides
	{type wall; faces ((0 1 2 3) (1 4 5 2) (4 6 7 5) (6 8 9 7) (8 10 11 9) (10 0 3 11) (3 2 12 13) (2 5 14 12) (5 7 15 14) (7 9 16 15) (9 11 17 16) (11 3 13 17) (13 12 18 19) (12 14 20 18) (14 15 21 20) (15 16 22 21) (16 17 23 22) (17 13 19 23) (19 18 24 25) (18 20 26 24) (20 21 27 26) (21 22 28 27) (22 23 29 28) (23 19 25 29) (25 24 30 31) (24 26 32 30) (26 27 33 32) (27 28 34 33) (28 29 35 34) (29 25 31 35) (31 30 36 37) (30 32 38 36) (32 33 39 38) (33 34 40 39) (34 35 41 40) (35 31 37 41) (37 36 42 43) (36 38 44 42) (38 39 45 44) (39 40 46 45) (40 41 47 46) (41 37 43 47) (43 42 48 49) (42 44 50 48) (44 45 51 50) (45 46 52 51) (46 47 53 52) (47 43 49 53) (49 48 54 55) (48 50 56 54) (50 51 57 56) (51 52 58 57) (52 53 59 58) (53 49 55 59) (55 54 60 61) (54 56 62 60) (56 57 63 62) (57 58 64 63) (58 59 65 64) (59 55 61 65) (61 60 66 67) (60 62 68 66) (62 63 69 68) (63 64 70 69) (64 65 71 70) (65 61 67 71) (67 66 72 73) (66 68 74 72) (68 69 75 74) (69 70 76 75) (70 71 77 76) (71 67 73 77) );}
);

// ************************************************************************* //
